Circuit: * C:\users\jose\Documents\tfg\ltspice4\slope-detector\Draft1.asc

.OP point found by inspection.

Date: Thu Oct 12 22:07:46 2023
Total elapsed time: 0.437 seconds.

tnom = 27
temp = 27
method = modified trap
totiter = 15488
traniter = 15488
tranpoints = 6623
accept = 4144
rejected = 2479
matrix size = 6
fillins = 0
solver = Normal
Avg thread counts: 1.2/1.4/1.4/1.2
Matrix Compiler1:       9 opcodes  0.5/0.5/[0.3]
Matrix Compiler2:      32 opcodes
