Circuit: * C:\users\jose\Documents\tfg\ltspice4\slope-detector\Draft1.asc

Warning: Multiple definitions of model "2scr375p" Type: BJT
Warning: Multiple definitions of model "bc857b" Type: BJT
Warning: Multiple definitions of model "bc847c" Type: BJT
Warning: Multiple definitions of model "bc847b" Type: BJT
Direct Newton iteration for .op point succeeded.

Date: Sun Oct 15 19:28:40 2023
Total elapsed time: 0.121 seconds.

tnom = 27
temp = 27
method = modified trap
totiter = 3505
traniter = 3494
tranpoints = 1748
accept = 1357
rejected = 391
matrix size = 15
fillins = 4
solver = Normal
Avg thread counts: 1.8/2.6/2.6/1.8
Matrix Compiler1:      60 opcodes  0.3/[0.2]/0.2
Matrix Compiler2: off
