Circuit: * C:\users\jose\Documents\tfg\ltspice4\slope-detector\Draft1.asc

Warning: Multiple definitions of model "2scr375p" Type: BJT
Warning: Multiple definitions of model "bc857b" Type: BJT
Warning: Multiple definitions of model "bc847c" Type: BJT
Warning: Multiple definitions of model "bc847b" Type: BJT
Limiting rise time of source v4 to 5e-05
Limiting fall time of source v4 to 5e-05
WARNING: Less than two connections to node nc_01.  This node is used by r1.
.OP point found by inspection.

Date: Wed Oct 25 17:03:06 2023
Total elapsed time: 11.708 seconds.

tnom = 27
temp = 27
method = modified trap
totiter = 1653364
traniter = 1653364
tranpoints = 826635
accept = 573939
rejected = 252696
matrix size = 31
fillins = 8
solver = Normal
Avg thread counts: 1.0/1.0/1.0/1.0
Matrix Compiler1:     148 opcodes  0.5/0.4/[0.4]
Matrix Compiler2: off
