Circuit: * C:\users\jose\Documents\tfg\ltspice4\slope-detector\freq-bpf-slope.asc

.OP point found by inspection.

Date: Fri Oct 13 00:17:23 2023
Total elapsed time: 0.054 seconds.

tnom = 27
temp = 27
method = trap
totiter = 0
traniter = 0
tranpoints = 0
accept = 0
rejected = 0
matrix size = 7
fillins = 0
solver = Normal
Avg thread counts: 8.0/0.0/0.0/5.6
Matrix Compiler1:      14 opcodes
Matrix Compiler2:      37 opcodes
