Circuit: * C:\users\jose\Documents\tfg\ltspice4\slope-detector\freq-bpf-slope.asc

.OP point found by inspection.

Date: Wed Oct 18 20:21:18 2023
Total elapsed time: 0.051 seconds.

tnom = 27
temp = 27
method = trap
totiter = 0
traniter = 0
tranpoints = 0
accept = 0
rejected = 0
matrix size = 14
fillins = 0
solver = Normal
Avg thread counts: 8.0/0.0/0.0/5.6
Matrix Compiler1:      28 opcodes
Matrix Compiler2:      73 opcodes
