Circuit: * C:\users\jose\Documents\tfg\ltspice4\slope-detector\mixer-demod.asc

Warning: Multiple definitions of model "2scr375p" Type: BJT
Warning: Multiple definitions of model "bc857b" Type: BJT
Warning: Multiple definitions of model "bc847c" Type: BJT
Warning: Multiple definitions of model "bc847b" Type: BJT
WARNING: Node N003 is floating.
WARNING: Node NC_01 is floating.

WARNING: Less than two connections to node n003.  This node is used by c10.
WARNING: Less than two connections to node nc_01.  This node is used by c8.
.OP point found by inspection.
Heightened Def Con from 0.0133502 to 0.0133502

Date: Sat Oct 14 21:17:24 2023
Total elapsed time: 10.575 seconds.

tnom = 27
temp = 27
method = modified trap
totiter = 2242529
traniter = 2242529
tranpoints = 1121268
accept = 773790
rejected = 347479
matrix size = 19
fillins = 6
solver = Normal
Avg thread counts: 1.0/1.0/1.0/1.0
Matrix Compiler1:      87 opcodes  0.4/[0.3]/0.3
Matrix Compiler2: off
