Circuit: * C:\users\jose\Documents\tfg\ltspice4\slope-detector\mixer.asc

Warning: Multiple definitions of model "2scr375p" Type: BJT
Warning: Multiple definitions of model "bc857b" Type: BJT
Warning: Multiple definitions of model "bc847c" Type: BJT
Warning: Multiple definitions of model "bc847b" Type: BJT
WARNING: Less than two connections to node n002.  This node is used by d1.
Direct Newton iteration for .op point succeeded.

Date: Fri Oct 13 10:09:40 2023
Total elapsed time: 0.861 seconds.

tnom = 27
temp = 27
method = modified trap
totiter = 212714
traniter = 212682
tranpoints = 102750
accept = 62151
rejected = 40599
matrix size = 12
fillins = 0
solver = Normal
Avg thread counts: 1.0/1.0/1.0/1.0
Matrix Compiler1:      26 opcodes  0.2/0.2/[0.2]
Matrix Compiler2:      66 opcodes
