Circuit: * C:\users\jose\Documents\tfg\ltspice4\slope-detector\slope-detector.asc

Warning: Multiple definitions of model "2scr375p" Type: BJT
Warning: Multiple definitions of model "bc857b" Type: BJT
Warning: Multiple definitions of model "bc847c" Type: BJT
Warning: Multiple definitions of model "bc847b" Type: BJT
WARNING: Node NC_02 is floating.
WARNING: Node NC_03 is floating.

WARNING: Less than two connections to node nc_01.  This node is used by d1.
WARNING: Less than two connections to node nc_03.  This node is used by c5.
Direct Newton iteration for .op point succeeded.
Heightened Def Con from 0.00469612 to 0.00469612

Date: Mon Oct 30 19:37:50 2023
Total elapsed time: 7.454 seconds.

tnom = 27
temp = 27
method = modified trap
totiter = 979028
traniter = 978996
tranpoints = 416086
accept = 283354
rejected = 132733
matrix size = 37
fillins = 22
solver = Normal
Avg thread counts: 1.0/1.0/1.0/1.0
Matrix Compiler1:     219 opcodes  0.7/[0.5]/0.6
Matrix Compiler2: off
