Circuit: * C:\users\jose\Documents\tfg\ltspice4\slope-detector\slope-detector.asc

Warning: Multiple definitions of model "2scr375p" Type: BJT
Warning: Multiple definitions of model "bc857b" Type: BJT
Warning: Multiple definitions of model "bc847c" Type: BJT
Warning: Multiple definitions of model "bc847b" Type: BJT
WARNING: Node NC_02 is floating.

WARNING: Less than two connections to node nc_01.  This node is used by d1.
Direct Newton iteration for .op point succeeded.
Heightened Def Con from 0.00394264 to 0.00394264

Date: Wed Oct 18 22:09:04 2023
Total elapsed time: 6.024 seconds.

tnom = 27
temp = 27
method = modified trap
totiter = 824322
traniter = 824290
tranpoints = 349822
accept = 238012
rejected = 111811
matrix size = 35
fillins = 20
solver = Normal
Avg thread counts: 1.0/1.0/1.0/1.0
Matrix Compiler1: off  [0.6]/0.7/0.7
Matrix Compiler2: off
