Circuit: * C:\users\jose\Documents\tfg\ltspice4\slope-detector\slope-detector.asc

Warning: Multiple definitions of model "2scr375p" Type: BJT
Warning: Multiple definitions of model "bc857b" Type: BJT
Warning: Multiple definitions of model "bc847c" Type: BJT
Warning: Multiple definitions of model "bc847b" Type: BJT
Direct Newton iteration for .op point succeeded.
Heightened Def Con from 0.0024889 to 0.0024889

Date: Fri Oct 13 10:10:44 2023
Total elapsed time: 2.505 seconds.

tnom = 27
temp = 27
method = modified trap
totiter = 475266
traniter = 475234
tranpoints = 215320
accept = 147840
rejected = 67481
matrix size = 19
fillins = 8
solver = Normal
Avg thread counts: 1.0/1.0/1.0/1.0
Matrix Compiler1:      93 opcodes  0.5/0.3/[0.3]
Matrix Compiler2: off
