Circuit: * C:\users\jose\My Documents\tfg\ltspice\Draft1.asc

WARNING: Node NC_01 is floating.

Direct Newton iteration for .op point succeeded.

Date: Sat Jul 29 19:34:38 2023
Total elapsed time: 0.351 seconds.

tnom = 27
temp = 27
method = modified trap
totiter = 2242
traniter = 2234
tranpoints = 1114
accept = 1105
rejected = 9
matrix size = 13
fillins = 5
solver = Normal
Matrix Compiler1: 1010 bytes object code size  0.8/1.2/[0.4]
Matrix Compiler2: 1.33 KB object code size  0.5/0.7/[0.5]

