Circuit: * C:\users\jose\My Documents\tfg\ltspice\Draft1.asc

.OP point found by inspection.

Date: Thu Jul 13 09:36:03 2023
Total elapsed time: 0.155 seconds.

tnom = 27
temp = 27
method = modified trap
totiter = 2412
traniter = 2412
tranpoints = 1207
accept = 1204
rejected = 3
matrix size = 4
fillins = 0
solver = Normal
Matrix Compiler1: 136 bytes object code size  0.2/0.2/[0.1]
Matrix Compiler2: 236 bytes object code size  0.2/0.2/[0.1]

