Circuit: * C:\users\jose\My Documents\tfg\ltspice\Draft4.asc


Date: Thu Jul 13 18:53:41 2023
Total elapsed time: 0.150 seconds.

tnom = 27
temp = 27
method = trap
totiter = 0
traniter = 0
tranpoints = 0
accept = 0
rejected = 0
matrix size = 4
fillins = 0
solver = Normal

