Circuit: * C:\users\jose\My Documents\tfg\ltspice\Draft2.asc

WARNING: Node NC_01 is floating.

WARNING: Less than two connections to node NC_01.  This node is used by C3.
Direct Newton iteration for .op point succeeded.

Date: Sat Jul 08 20:40:47 2023
Total elapsed time: 0.556 seconds.

tnom = 27
temp = 27
method = modified trap
totiter = 35222
traniter = 35216
tranpoints = 17609
accept = 10591
rejected = 7018
matrix size = 12
fillins = 2
solver = Normal
Matrix Compiler1: 802 bytes object code size  0.8/0.7/[0.6]
Matrix Compiler2: off  [0.6]/0.7/0.6

