Circuit: * C:\users\jose\My Documents\tfg\ltspice\osc-int.asc

Direct Newton iteration for .op point succeeded.

Date: Thu Jul 13 23:29:35 2023
Total elapsed time: 1.110 seconds.

tnom = 27
temp = 27
method = modified trap
totiter = 501305
traniter = 501293
tranpoints = 177238
accept = 124239
rejected = 52999
matrix size = 12
fillins = 2
solver = Normal
Matrix Compiler1: 802 bytes object code size  0.2/0.2/[0.1]
Matrix Compiler2: 942 bytes object code size  0.1/0.2/[0.1]

