Circuit: * C:\users\jose\My Documents\tfg\ltspice\osc-colpin.asc

.OP point found by inspection.

Date: Fri Jul 14 10:20:36 2023
Total elapsed time: 8.041 seconds.

tnom = 27
temp = 27
method = modified trap
totiter = 3822701
traniter = 3822701
tranpoints = 1455744
accept = 1038523
rejected = 417221
matrix size = 12
fillins = 2
solver = Normal
Matrix Compiler1: 802 bytes object code size  0.2/0.1/[0.1]
Matrix Compiler2: 942 bytes object code size  0.1/0.2/[0.1]

