Circuit: * C:\users\jose\My Documents\tfg\ltspice\osc2.asc

.OP point found by inspection.

Date: Thu Jul 13 10:44:50 2023
Total elapsed time: 0.244 seconds.

tnom = 27
temp = 27
method = modified trap
totiter = 2273
traniter = 2273
tranpoints = 1130
accept = 1106
rejected = 24
matrix size = 9
fillins = 2
solver = Normal
Matrix Compiler1: 688 bytes object code size  0.8/0.6/[0.5]
Matrix Compiler2: 783 bytes object code size  0.6/0.7/[0.6]

