Circuit: * C:\users\jose\My Documents\tfg\ltspice\realim-colpits.asc


Date: Fri Jul 14 09:46:32 2023
Total elapsed time: 0.069 seconds.

tnom = 27
temp = 27
method = trap
totiter = 0
traniter = 0
tranpoints = 0
accept = 0
rejected = 0
matrix size = 4
fillins = 0
solver = Normal

