Circuit: * C:\users\jose\My Documents\tfg\ltspice\realim-osc.asc


Date: Thu Jul 13 17:53:03 2023
Total elapsed time: 0.114 seconds.

tnom = 27
temp = 27
method = trap
totiter = 0
traniter = 0
tranpoints = 0
accept = 0
rejected = 0
matrix size = 4
fillins = 0
solver = Normal

