Circuit: * C:\users\jose\My Documents\tfg\ltspice\realim-osc2.asc


Date: Sat Jul 08 19:35:15 2023
Total elapsed time: 0.143 seconds.

tnom = 27
temp = 27
method = trap
totiter = 0
traniter = 0
tranpoints = 0
accept = 0
rejected = 0
matrix size = 3
fillins = 0
solver = Normal

