Circuit: * C:\users\jose\My Documents\tfg\ltspice\realim-rlc.asc


Date: Fri Jul 14 11:38:00 2023
Total elapsed time: 0.109 seconds.

tnom = 27
temp = 27
method = trap
totiter = 0
traniter = 0
tranpoints = 0
accept = 0
rejected = 0
matrix size = 4
fillins = 1
solver = Normal

