Circuit: * C:\users\jose\Documents\tfg\ltspice4\coherent\dem-colpin.asc

Warning: Multiple definitions of model "2scr375p" Type: BJT
Warning: Multiple definitions of model "bc857b" Type: BJT
Warning: Multiple definitions of model "bc847c" Type: BJT
Warning: Multiple definitions of model "bc847b" Type: BJT
WARNING: Node NC_01 is floating.
WARNING: Node NC_02 is floating.

WARNING: Less than two connections to node nc_01.  This node is used by c4.
WARNING: Less than two connections to node nc_02.  This node is used by c2.
.OP point found by inspection.

Date: Tue Oct 10 20:29:10 2023
Total elapsed time: 8.315 seconds.

tnom = 27
temp = 27
method = modified trap
totiter = 2400018
traniter = 2400018
tranpoints = 1200010
accept = 720022
rejected = 479988
matrix size = 17
fillins = 2
solver = Normal
Avg thread counts: 1.0/1.0/1.0/1.0
Matrix Compiler1:      52 opcodes  0.3/0.2/[0.2]
Matrix Compiler2: off
