Circuit: * C:\users\jose\Documents\tfg\ltspice4\coherent\dem-colpin.asc

Warning: Multiple definitions of model "2scr375p" Type: BJT
Warning: Multiple definitions of model "bc857b" Type: BJT
Warning: Multiple definitions of model "bc847c" Type: BJT
Warning: Multiple definitions of model "bc847b" Type: BJT
WARNING: Node N009 is floating.
WARNING: Node NC_01 is floating.
WARNING: Node N004 is floating.

WARNING: Less than two connections to node nc_01.  This node is used by c1.
WARNING: Less than two connections to node n004.  This node is used by c2.
.OP point found by inspection.

Date: Mon Sep 25 22:54:41 2023
Total elapsed time: 9.085 seconds.

tnom = 27
temp = 27
method = modified trap
totiter = 2280196
traniter = 2280196
tranpoints = 1140099
accept = 780074
rejected = 360025
matrix size = 18
fillins = 0
solver = Normal
Avg thread counts: 1.0/1.0/1.0/1.0
Matrix Compiler1: 816 bytes object code size  0.3/0.3/[0.2]
Matrix Compiler2: 1.25 KB object code size  0.2/0.3/[0.2]

