Circuit: * C:\users\jose\Documents\tfg\ltspice4\coherent\Draft1.asc

WARNING: Less than two connections to node n002.  This node is used by d1.
WARNING: Less than two connections to node n003.  This node is used by r1.
.OP point found by inspection.

Date: Tue Oct 10 20:36:06 2023
Total elapsed time: 0.611 seconds.

tnom = 27
temp = 27
method = modified trap
totiter = 83674
traniter = 83674
tranpoints = 41838
accept = 28714
rejected = 13124
matrix size = 5
fillins = 0
solver = Normal
Avg thread counts: 1.0/1.1/1.1/1.0
Matrix Compiler1:       7 opcodes  0.1/0.1/[0.1]
Matrix Compiler2: off
