Circuit: * C:\users\jose\Documents\tfg\ltspice4\coherent\slope-detector.asc

WARNING: Node N003 is floating.

WARNING: Less than two connections to node n003.  This node is used by c2.
.OP point found by inspection.

Date: Tue Oct 10 20:47:52 2023
Total elapsed time: 0.271 seconds.

tnom = 27
temp = 27
method = modified trap
totiter = 85930
traniter = 85930
tranpoints = 42966
accept = 29221
rejected = 13745
matrix size = 5
fillins = 0
solver = Normal
Avg thread counts: 1.0/1.1/1.1/1.0
Matrix Compiler1:       7 opcodes  0.2/0.2/[0.1]
Matrix Compiler2: off
