Circuit: * C:\users\jose\Documents\tfg\ltspice3\Draft2.asc

.OP point found by inspection.

Date: Tue Oct 10 20:46:42 2023
Total elapsed time: 0.091 seconds.

tnom = 27
temp = 27
method = trap
totiter = 0
traniter = 0
tranpoints = 0
accept = 0
rejected = 0
matrix size = 3
fillins = 1
solver = Normal
Avg thread counts: 8.0/0.0/0.0/5.6
Matrix Compiler1:       6 opcodes
Matrix Compiler2:      16 opcodes
