Circuit: * C:\users\jose\Documents\tfg\ltspice3\osc-colpin.asc

Warning: Multiple definitions of model "2scr375p" Type: BJT
Warning: Multiple definitions of model "bc857b" Type: BJT
Warning: Multiple definitions of model "bc847c" Type: BJT
Warning: Multiple definitions of model "bc847b" Type: BJT
.OP point found by inspection.

Date: Fri Sep  8 17:20:44 2023
Total elapsed time: 0.091 seconds.

tnom = 27
temp = 27
method = modified trap
totiter = 2272
traniter = 2272
tranpoints = 1131
accept = 1106
rejected = 25
matrix size = 9
fillins = 2
solver = Normal
Avg thread counts: 2.2/3.4/3.4/2.2
Matrix Compiler1: 706 bytes object code size  0.3/0.3/[0.2]
Matrix Compiler2: 783 bytes object code size  0.2/0.2/[0.2]

