Circuit: * C:\users\jose\Documents\tfg\ltspice3\osc-basecomun.asc

Warning: Multiple definitions of model "2scr375p" Type: BJT
Warning: Multiple definitions of model "bc857b" Type: BJT
Warning: Multiple definitions of model "bc847c" Type: BJT
Warning: Multiple definitions of model "bc847b" Type: BJT
Limiting rise time of source v2 to 5e-05
Limiting fall time of source v2 to 5e-05
.OP point found by inspection.
Heightened Def Con from 0.00314403 to 0.00314403

Date: Thu Sep 14 11:04:41 2023
Total elapsed time: 4.553 seconds.

tnom = 27
temp = 27
method = modified trap
totiter = 1436137
traniter = 1436137
tranpoints = 517873
accept = 377460
rejected = 140414
matrix size = 13
fillins = 6
solver = Normal
Avg thread counts: 1.0/1.0/1.0/1.0
Matrix Compiler1: 1.20 KB object code size  0.4/0.4/[0.3]
Matrix Compiler2: off  [0.2]/0.4/0.2

