Circuit: * C:\users\jose\Documents\tfg\ltspice3\osc-colpin.asc

Warning: Multiple definitions of model "2scr375p" Type: BJT
Warning: Multiple definitions of model "bc857b" Type: BJT
Warning: Multiple definitions of model "bc847c" Type: BJT
Warning: Multiple definitions of model "bc847b" Type: BJT
Limiting rise time of source v2 to 5e-05
Limiting fall time of source v2 to 5e-05
.OP point found by inspection.
Heightened Def Con from 0.00609023 to 0.00609023

Date: Tue Oct 10 20:42:43 2023
Total elapsed time: 13.269 seconds.

tnom = 27
temp = 27
method = modified trap
totiter = 4484601
traniter = 4484601
tranpoints = 1367304
accept = 942241
rejected = 425064
matrix size = 12
fillins = 2
solver = Normal
Avg thread counts: 1.0/1.0/1.0/1.0
Matrix Compiler1:      48 opcodes  0.3/0.2/[0.2]
Matrix Compiler2: off
