Circuit: * C:\users\jose\Documents\tfg\ltspice3\osc-colpin.asc

Warning: Multiple definitions of model "2scr375p" Type: BJT
Warning: Multiple definitions of model "bc857b" Type: BJT
Warning: Multiple definitions of model "bc847c" Type: BJT
Warning: Multiple definitions of model "bc847b" Type: BJT
Limiting rise time of source v2 to 5e-05
Limiting fall time of source v2 to 5e-05
.OP point found by inspection.

Date: Wed Sep 20 20:29:46 2023
Total elapsed time: 10.438 seconds.

tnom = 27
temp = 27
method = modified trap
totiter = 3364261
traniter = 3364261
tranpoints = 1031271
accept = 710657
rejected = 320614
matrix size = 12
fillins = 2
solver = Normal
Avg thread counts: 1.0/1.0/1.0/1.0
Matrix Compiler1: 882 bytes object code size  0.3/0.2/[0.2]
Matrix Compiler2: 1022 bytes object code size  0.2/0.2/[0.2]

