Circuit: * C:\users\jose\Documents\tfg\ltspice3\realim-hartley.asc

.OP point found by inspection.

Date: Fri Sep  8 14:16:43 2023
Total elapsed time: 0.091 seconds.

tnom = 27
temp = 27
method = trap
totiter = 0
traniter = 0
tranpoints = 0
accept = 0
rejected = 0
matrix size = 6
fillins = 0
solver = Normal
Avg thread counts: 8.0/0.0/0.0/5.9
Matrix Compiler1:      13 opcodes
Matrix Compiler2:      33 opcodes
