Circuit: * C:\users\jose\Documents\tfg\ltspice3\realim-basecomun.asc

Direct Newton iteration for .op point succeeded.

Date: Wed Sep 20 19:24:40 2023
Total elapsed time: 0.094 seconds.

tnom = 27
temp = 27
method = trap
totiter = 3
traniter = 0
tranpoints = 0
accept = 0
rejected = 0
matrix size = 5
fillins = 0
solver = Normal
Avg thread counts: 8.0/0.0/8.0/5.6
Matrix Compiler1:       7 opcodes
Matrix Compiler2: 287 bytes object code size
