Circuit: * C:\users\jose\Documents\tfg\ltspice4\non-cocherent\demodulador\Draft1.asc

.OP point found by inspection.

Date: Mon Oct  2 20:40:04 2023
Total elapsed time: 0.068 seconds.

tnom = 27
temp = 27
method = trap
totiter = 0
traniter = 0
tranpoints = 0
accept = 0
rejected = 0
matrix size = 5
fillins = 1
solver = Normal
Avg thread counts: 4.0/0.0/0.0/3.3
Matrix Compiler1:      12 opcodes
Matrix Compiler2:      28 opcodes
