Circuit: * C:\users\jose\Documents\tfg\ltspice4\non-cocherent\demodulador\Draft2.asc

Warning: Multiple definitions of model "2scr375p" Type: BJT
Warning: Multiple definitions of model "bc857b" Type: BJT
Warning: Multiple definitions of model "bc847c" Type: BJT
Warning: Multiple definitions of model "bc847b" Type: BJT
Direct Newton iteration for .op point succeeded.

Date: Wed Oct  4 20:58:02 2023
Total elapsed time: 4.687 seconds.

tnom = 27
temp = 27
method = modified trap
totiter = 1250949
traniter = 1250938
tranpoints = 625470
accept = 440100
rejected = 185370
matrix size = 10
fillins = 0
solver = Normal
Avg thread counts: 1.0/1.0/1.0/1.0
Matrix Compiler1:      21 opcodes  0.2/[0.2]/0.2
Matrix Compiler2: off
