Circuit: * C:\users\jose\Documents\tfg\ltspice4\non-cocherent\demodulador\Draft1.asc

Warning: Multiple definitions of model "2scr375p" Type: BJT
Warning: Multiple definitions of model "bc857b" Type: BJT
Warning: Multiple definitions of model "bc847c" Type: BJT
Warning: Multiple definitions of model "bc847b" Type: BJT
WARNING: Node NC_01 is floating.

WARNING: Less than two connections to node nc_01.  This node is used by c7.
.OP point found by inspection.

Date: Mon Oct  9 21:10:46 2023
Total elapsed time: 1.158 seconds.

tnom = 27
temp = 27
method = modified trap
totiter = 243453
traniter = 243453
tranpoints = 75497
accept = 49682
rejected = 25815
matrix size = 21
fillins = 0
solver = Normal
Avg thread counts: 1.0/1.0/1.0/1.0
Matrix Compiler1:      60 opcodes  0.4/0.3/[0.3]
Matrix Compiler2: off
