Circuit: * C:\users\jose\Documents\tfg\ltspice4\non-cocherent\demodulador\freq-bpf-primero.asc

.OP point found by inspection.

Date: Thu Oct 12 19:00:46 2023
Total elapsed time: 0.087 seconds.

tnom = 27
temp = 27
method = trap
totiter = 0
traniter = 0
tranpoints = 0
accept = 0
rejected = 0
matrix size = 3
fillins = 1
solver = Normal
Avg thread counts: 8.0/0.0/0.0/5.6
Matrix Compiler1:       6 opcodes
Matrix Compiler2:      16 opcodes
