Circuit: * C:\users\jose\Documents\tfg\ltspice4\non-cocherent\demodulador\freq-bpf-9Mhz-chebysev.asc

.OP point found by inspection.

Date: Mon Oct  2 21:04:47 2023
Total elapsed time: 0.048 seconds.

tnom = 27
temp = 27
method = trap
totiter = 0
traniter = 0
tranpoints = 0
accept = 0
rejected = 0
matrix size = 12
fillins = 0
solver = Normal
Avg thread counts: 4.0/0.0/0.0/3.3
Matrix Compiler1:      27 opcodes
Matrix Compiler2:      66 opcodes
