Circuit: * C:\users\jose\Documents\tfg\ltspice4\non-cocherent\demodulador\general.asc

Warning: Multiple definitions of model "2scr375p" Type: BJT
Warning: Multiple definitions of model "bc857b" Type: BJT
Warning: Multiple definitions of model "bc847c" Type: BJT
Warning: Multiple definitions of model "bc847b" Type: BJT
.OP point found by inspection.

Date: Mon Oct  2 21:24:41 2023
Total elapsed time: 7.288 seconds.

tnom = 27
temp = 27
method = modified trap
totiter = 1511088
traniter = 1511088
tranpoints = 755545
accept = 539112
rejected = 216433
matrix size = 14
fillins = 0
solver = Normal
Avg thread counts: 1.0/1.0/1.0/1.0
Matrix Compiler1: 608 bytes object code size  0.2/0.2/[0.2]
Matrix Compiler2: 998 bytes object code size  0.2/0.3/[0.1]

