Circuit: * C:\users\jose\Documents\tfg\ltspice4\non-cocherent\modulator-spst.asc

Warning: Multiple definitions of model "2scr375p" Type: BJT
Warning: Multiple definitions of model "bc857b" Type: BJT
Warning: Multiple definitions of model "bc847c" Type: BJT
Warning: Multiple definitions of model "bc847b" Type: BJT
Limiting rise time of source v2 to 5e-05
Limiting fall time of source v2 to 5e-05
Direct Newton iteration for .op point succeeded.

Date: Mon Oct  2 20:42:08 2023
Total elapsed time: 23.429 seconds.

tnom = 27
temp = 27
method = modified trap
totiter = 2947210
traniter = 2947197
tranpoints = 940435
accept = 672091
rejected = 268344
matrix size = 37
fillins = 30
solver = Normal
Avg thread counts: 1.0/1.0/1.0/1.0
Matrix Compiler1: 5.85 KB object code size  1.0/0.7/[0.5]
Matrix Compiler2: 4.01 KB object code size  0.5/0.6/[0.3]

