Circuit: * C:\users\jose\Documents\tfg\ltspice4\non-cocherent\modulator-spst.asc

Warning: Multiple definitions of model "2scr375p" Type: BJT
Warning: Multiple definitions of model "bc857b" Type: BJT
Warning: Multiple definitions of model "bc847c" Type: BJT
Warning: Multiple definitions of model "bc847b" Type: BJT
Limiting rise time of source v2 to 5e-05
Limiting fall time of source v2 to 5e-05
Direct Newton iteration for .op point succeeded.
Heightened Def Con from 0.00117719 to 0.00117719

Date: Mon Sep 25 20:41:45 2023
Total elapsed time: 28.782 seconds.

tnom = 27
temp = 27
method = modified trap
totiter = 4189509
traniter = 4189496
tranpoints = 1337221
accept = 953692
rejected = 383530
matrix size = 37
fillins = 30
solver = Normal
Avg thread counts: 1.0/1.0/1.0/1.0
Matrix Compiler1: 5.85 KB object code size  0.9/0.7/[0.4]
Matrix Compiler2: 4.01 KB object code size  0.3/0.5/[0.3]

