Circuit: * C:\users\jose\My Documents\tfg\ltspice2\class-c-amp.asc

.OP point found by inspection.

Date: Sun Jul 30 20:21:01 2023
Total elapsed time: 0.325 seconds.

tnom = 27
temp = 27
method = modified trap
totiter = 15781
traniter = 15781
tranpoints = 7890
accept = 5705
rejected = 2185
matrix size = 5
fillins = 0
solver = Normal
Matrix Compiler1: 444 bytes object code size  0.6/0.5/[0.4]
Matrix Compiler2: 437 bytes object code size  0.5/0.5/[0.4]

