Circuit: * C:\users\jose\Documents\tfg\ltspice2\class-c-amp.asc

Warning: Multiple definitions of model "2scr375p" Type: BJT
Warning: Multiple definitions of model "bc857b" Type: BJT
Warning: Multiple definitions of model "bc847c" Type: BJT
Warning: Multiple definitions of model "bc847b" Type: BJT
Limiting rise time of source v2 to 5e-05
Limiting fall time of source v2 to 5e-05
WARNING: Less than two connections to node n002.  This node is used by q2.
Direct Newton iteration for .op point succeeded.

Date: Tue Aug  1 14:13:10 2023
Total elapsed time: 0.079 seconds.

tnom = 27
temp = 27
method = modified trap
totiter = 2737
traniter = 2716
tranpoints = 1359
accept = 1274
rejected = 85
matrix size = 9
fillins = 0
solver = Normal
Avg thread counts: 1.5/1.9/1.9/1.5
Matrix Compiler1: 412 bytes object code size  0.2/0.2/[0.1]
Matrix Compiler2: off  [0.2]/0.2/0.2

