Circuit: * C:\users\jose\My Documents\tfg\ltspice2\class-c-amp.asc

Limiting rise time of source i1 to 1e-005
Limiting fall time of source i1 to 1e-005
Limiting rise time of source v2 to 1e-005
Limiting fall time of source v2 to 1e-005
WARNING: Less than two connections to node N002.  This node is used by Q2.
Direct Newton iteration for .op point succeeded.

Date: Wed Aug 02 14:43:29 2023
Total elapsed time: 0.487 seconds.

tnom = 27
temp = 27
method = modified trap
totiter = 74583
traniter = 74562
tranpoints = 37282
accept = 26148
rejected = 11134
matrix size = 10
fillins = 0
solver = Normal
Matrix Compiler1: 444 bytes object code size  0.2/0.2/[0.2]
Matrix Compiler2: off  [0.1]/0.2/0.2

