Circuit: * C:\users\jose\Documents\tfg\ltspice2\colpits-small signal.asc

.OP point found by inspection.
Heightened Def Con from 0.00660143 to 0.00660143

Date: Fri Sep  8 10:26:26 2023
Total elapsed time: 7.187 seconds.

tnom = 27
temp = 27
method = modified trap
totiter = 4070738
traniter = 4070738
tranpoints = 2035375
accept = 1334293
rejected = 701083
matrix size = 2
fillins = 0
solver = Normal
Avg thread counts: 1.0/1.0/1.0/1.0
Matrix Compiler1:       3 opcodes  0.1/[0.1]/0.1
Matrix Compiler2: off  [0.1]/0.1/0.1

