Circuit: * C:\users\jose\My Documents\tfg\ltspice2\colpits-small signal.asc

.OP point found by inspection.

Date: Fri Aug 11 18:38:51 2023
Total elapsed time: 7.069 seconds.

tnom = 27
temp = 27
method = modified trap
totiter = 1852084
traniter = 1852084
tranpoints = 926043
accept = 648193
rejected = 277850
matrix size = 2
fillins = 0
solver = Normal
Matrix Compiler1: 54 bytes object code size  0.4/0.3/[0.3]
Matrix Compiler2: 116 bytes object code size  0.3/0.3/[0.3]

