Circuit: * C:\users\jose\My Documents\tfg\ltspice2\Draft1.asc

Direct Newton iteration for .op point succeeded.

Date: Mon Aug 21 13:09:44 2023
Total elapsed time: 0.070 seconds.

tnom = 27
temp = 27
method = modified trap
totiter = 2200
traniter = 2183
tranpoints = 1047
accept = 1044
rejected = 3
matrix size = 5
fillins = 0
solver = Normal
Matrix Compiler1: 320 bytes object code size  0.1/0.1/[0.1]
Matrix Compiler2:      31 opcodes  0.1/[0.1]/0.1

