Circuit: * C:\users\jose\Documents\tfg\ltspice2\Draft1.asc

.OP point found by inspection.

Date: Sun Sep 24 13:17:22 2023
Total elapsed time: 0.108 seconds.

tnom = 27
temp = 27
method = modified trap
totiter = 2098
traniter = 2098
tranpoints = 1050
accept = 1044
rejected = 6
matrix size = 7
fillins = 0
solver = Normal
Avg thread counts: 2.3/3.6/3.6/2.3
Matrix Compiler1: off  [0.2]/0.2/0.2
Matrix Compiler2: 427 bytes object code size  0.1/0.2/[0.1]

