Circuit: * C:\users\jose\My Documents\tfg\ltspice2\Draft1.asc

Direct Newton iteration for .op point succeeded.

Date: Sun Jul 30 14:19:48 2023
Total elapsed time: 0.228 seconds.

tnom = 27
temp = 27
method = modified trap
totiter = 2218
traniter = 2209
tranpoints = 1042
accept = 1042
rejected = 0
matrix size = 7
fillins = 0
solver = Normal
Matrix Compiler1: 330 bytes object code size  0.5/0.4/[0.4]
Matrix Compiler2: off  [0.4]/0.5/0.5

