Circuit: * C:\users\jose\My Documents\tfg\ltspice2\Draft1.asc

.OP point found by inspection.

Date: Fri Aug 11 14:05:39 2023
Total elapsed time: 0.179 seconds.

tnom = 27
temp = 27
method = modified trap
totiter = 5316
traniter = 5316
tranpoints = 2659
accept = 1829
rejected = 830
matrix size = 2
fillins = 0
solver = Normal
Matrix Compiler1: 54 bytes object code size  0.4/0.4/[0.4]
Matrix Compiler2: 116 bytes object code size  0.4/0.4/[0.4]

