Circuit: * C:\users\jose\My Documents\tfg\ltspice2\fsk-modulator.asc

Limiting rise time of source v3 to 3.3e-007
Limiting fall time of source v3 to 3.3e-007
Direct Newton iteration for .op point succeeded.

Date: Thu Aug 10 15:02:27 2023
Total elapsed time: 11.922 seconds.

tnom = 27
temp = 27
method = modified trap
totiter = 6529203
traniter = 6529197
tranpoints = 2789563
accept = 1752891
rejected = 1036672
matrix size = 10
fillins = 0
solver = Normal
Matrix Compiler1: 452 bytes object code size  0.2/0.1/[0.1]
Matrix Compiler2: 726 bytes object code size  0.2/0.2/[0.1]

