Circuit: * C:\users\jose\Documents\tfg\ltspice2\osc-bueno.asc

Warning: Multiple definitions of model "2scr375p" Type: BJT
Warning: Multiple definitions of model "bc857b" Type: BJT
Warning: Multiple definitions of model "bc847c" Type: BJT
Warning: Multiple definitions of model "bc847b" Type: BJT
.OP point found by inspection.

Date: Wed Sep  6 13:48:08 2023
Total elapsed time: 0.153 seconds.

tnom = 27
temp = 27
method = modified trap
totiter = 6643
traniter = 6643
tranpoints = 3317
accept = 2562
rejected = 755
matrix size = 8
fillins = 2
solver = Normal
Avg thread counts: 1.4/1.8/1.8/1.4
Matrix Compiler1: off  [0.2]/0.9/6.4
Matrix Compiler2: 710 bytes object code size  0.2/0.7/[0.2]

