Circuit: * C:\users\jose\Documents\tfg\ltspice2\osc-colpin.asc

Warning: Multiple definitions of model "2scr375p" Type: BJT
Warning: Multiple definitions of model "bc857b" Type: BJT
Warning: Multiple definitions of model "bc847c" Type: BJT
Warning: Multiple definitions of model "bc847b" Type: BJT
.OP point found by inspection.
Heightened Def Con from 0.00103366 to 0.00103366

Date: Fri Sep  8 13:41:26 2023
Total elapsed time: 14.744 seconds.

tnom = 27
temp = 27
method = modified trap
totiter = 5827727
traniter = 5827727
tranpoints = 2317834
accept = 1507861
rejected = 809974
matrix size = 6
fillins = 0
solver = Normal
Avg thread counts: 1.0/1.0/1.0/1.0
Matrix Compiler1: 396 bytes object code size  0.2/0.2/[0.2]
Matrix Compiler2: off  [0.1]/0.2/0.1

