Circuit: * C:\users\jose\My Documents\tfg\ltspice2\osc-colpin.asc

.OP point found by inspection.

Date: Fri Aug 11 19:23:24 2023
Total elapsed time: 14.979 seconds.

tnom = 27
temp = 27
method = modified trap
totiter = 866747
traniter = 866747
tranpoints = 308007
accept = 215041
rejected = 92966
matrix size = 12
fillins = 4
solver = Normal
Matrix Compiler1: 846 bytes object code size  2.8/2.3/[1.7]
Matrix Compiler2: 988 bytes object code size  2.0/2.9/[1.9]

