Circuit: * C:\users\jose\My Documents\tfg\ltspice2\vco.asc

Direct Newton iteration for .op point succeeded.

Date: Sat Jul 29 21:15:53 2023
Total elapsed time: 0.866 seconds.

tnom = 27
temp = 27
method = modified trap
totiter = 55709
traniter = 55660
tranpoints = 13565
accept = 9619
rejected = 3946
matrix size = 19
fillins = 11
solver = Normal
Matrix Compiler1: 1.59 KB object code size  1.4/1.0/[0.7]
Matrix Compiler2: off  [1.0]/1.5/1.2

