Circuit: * C:\users\jose\My Documents\tfg\ltspice2\vco.asc

WARNING: Less than two connections to node N002.  This node is used by R4.
WARNING: Less than two connections to node VREF.  This node is used by V4.
Direct Newton iteration for .op point succeeded.

Date: Mon Jul 31 01:50:54 2023
Total elapsed time: 0.371 seconds.

tnom = 27
temp = 27
method = modified trap
totiter = 2124
traniter = 2085
tranpoints = 1042
accept = 1042
rejected = 0
matrix size = 21
fillins = 3
solver = Normal
Matrix Compiler1: 1.18 KB object code size  1.3/0.9/[0.6]
Matrix Compiler2: off  [0.9]/1.3/1.0

