Circuit: * C:\users\jose\Documents\tfg\ltspice2\vco.asc

Warning: Multiple definitions of model "2scr375p" Type: BJT
Warning: Multiple definitions of model "bc857b" Type: BJT
Warning: Multiple definitions of model "bc847c" Type: BJT
Warning: Multiple definitions of model "bc847b" Type: BJT
Limiting rise time of source v3 to 5e-05
Limiting fall time of source v3 to 5e-05
WARNING: Less than two connections to node vref.  This node is used by v4.
Direct Newton iteration for .op point succeeded.

Date: Mon Jul 31 15:39:38 2023
Total elapsed time: 0.633 seconds.

tnom = 27
temp = 27
method = modified trap
totiter = 85795
traniter = 85773
tranpoints = 32807
accept = 22043
rejected = 10764
matrix size = 21
fillins = 3
solver = Normal
Avg thread counts: 1.0/1.0/1.0/1.0
Matrix Compiler1: 1.19 KB object code size  0.4/0.2/[0.2]
Matrix Compiler2: off  [0.2]/0.4/0.3

